<!DOCTYPE html>
<html>
  <head>
    <meta name="pypi:repository-version" content="1.0">
    <title>Links for pyturbsim</title>
  </head>
  <body>
    <h1>Links for pyturbsim</h1>
    <a href="https://files.pythonhosted.org/packages/8e/c6/dfe7487ad4f75e469c147a1cb89e54437280b4126f644359adf417956910/PyTurbSim-0.3.5.tar.gz#sha256=a631671b8e050b3355caab658b8caf53b32631b054e3ea8252059c84ba4c8690" >PyTurbSim-0.3.5.tar.gz</a><br />
    <a href="https://files.pythonhosted.org/packages/9b/5e/9f1a2202a85bb46917247c4759a659e9a8aadf358cd330fa21666ded1d1f/PyTurbSim-0.3.6.tar.gz#sha256=518cbb56a5a6ee50b83c3234c504972324f1d56d1895ae2e2a6c65972e1a90ae" >PyTurbSim-0.3.6.tar.gz</a><br />
    <a href="https://files.pythonhosted.org/packages/c9/d4/9f40e3d355263db06e702f7cab86e512faf9aa503ebc2301b6281dae3691/PyTurbSim-0.3.7.tar.gz#sha256=d403e21d3b1b1e1896020ee181ba02cb7ee53ebe4d19aa78450a11a21f1f6921" >PyTurbSim-0.3.7.tar.gz</a><br />
    <a href="https://files.pythonhosted.org/packages/77/6b/144c90fd92d2fda4d3c4e2ae1221867defc53f42b54cc405a4fba783051d/PyTurbSim-0.3.8.tar.gz#sha256=0e4ea1971b56355b2d7c0e8b97ca21ceb39b6be6b2087e5bb39b9ec44aa471c9" >PyTurbSim-0.3.8.tar.gz</a><br />
    <a href="https://files.pythonhosted.org/packages/a2/64/717094a699380e7faf42e67f9b030fed279dc4fbdf901ef93420ffffe751/PyTurbSim-0.4.0.tar.gz#sha256=aeebf378bf691bd8cde24ce507f78ee5a55a63f7c108f49d22e6e81334a8cfd5" >PyTurbSim-0.4.0.tar.gz</a><br />
    <a href="https://files.pythonhosted.org/packages/63/8c/b4cd1aa2e1cc495bc9d3b2cd36f5c62d823f4d6c4126d175ceaa2c7df79f/PyTurbSim-0.4.1.tar.gz#sha256=a78d5b89936d8821c5ba3915c04e8d8876cc37ea9ddfde44cafae00539553d24" >PyTurbSim-0.4.1.tar.gz</a><br />
    <a href="https://files.pythonhosted.org/packages/40/a0/9b0e6d5bab6c32689f47e8488ba3bfe371d7d94bad9a4fad0b0b20a6621f/PyTurbSim-0.4.2.tar.gz#sha256=fc9cdcf5c37b751b82b4db0b7cea334143e28c94f1b33a85e8d78c8a0f56cee0" >PyTurbSim-0.4.2.tar.gz</a><br />
    <a href="https://files.pythonhosted.org/packages/7e/a1/8ba495567bc26df63d2f6bc7554172014f276b1fc3db8cfb668f32297fc8/PyTurbSim-0.4.3.tar.gz#sha256=4b9c77bd229affc993ceee88c20510b64d04af52371fc256201b2602a6d9ace8" >PyTurbSim-0.4.3.tar.gz</a><br />
    <a href="https://files.pythonhosted.org/packages/bc/7a/0c38144778756b5c603e41b690d4223e92a3627af635bb936aa96690c804/PyTurbSim-0.4.5.tar.gz#sha256=d98b6e83cca281f4e71d9e781e163fddbf8c8d2aa84452d34a865b726b33793c" >PyTurbSim-0.4.5.tar.gz</a><br />
    <a href="https://files.pythonhosted.org/packages/03/17/e66e36296db8b5f0a06441e64ab4d6e9e03de8a85e820cab572ece4467a2/PyTurbSim-0.4.6.tar.gz#sha256=1fbd55d2ffe24251f3ea10b6377dabd9ed2eec3ca5641668841dba80c8cd427f" >PyTurbSim-0.4.6.tar.gz</a><br />
    <a href="https://files.pythonhosted.org/packages/2e/3c/e914f66ac2d9bdb699d9b44b8dc5dd2a8530d8ab11e455b86076f08e368b/PyTurbSim-0.4.7.tar.gz#sha256=79a93cb82c8141eee102abf62b0be4b2cedcc12b13a31ab5db98d0ccafaf7798" >PyTurbSim-0.4.7.tar.gz</a><br />
    </body>
</html>
<!--SERIAL 1803548-->